cases/Simple_Cases/ieee39_fault_out.txt
ANDES 1.9.3.post10+g1eecc207
Copyright (C) 2015-2022 Hantao Cui

ANDES comes with ABSOLUTELY NO WARRANTY
Case file: ieee39_fault.xlsx
Report time: 03/06/2026 12:06:53 PM

Power flow converged in 5 iterations.
Flat-start: No

Statistics:
Buses                             39
Generators                        10
Committed Gens                    10
Loads                             19
Shunts                             2
Lines                             46
Transformers                       0
Areas                              2

EXTENDED SUMMARY:
                              P (pu)            Q (pu)

Generation                    59.223            28.562
Load                          58.564            17.345

BUS DATA:
                            Bus Name            Vm(pu)          Va(rad.)

1                               BUS1            1.0132          -0.20234
2                               BUS2           0.98486          -0.22012
3                              LOAD3           0.93503          -0.29686
4                              LOAD4           0.92639           -0.2868
5                               BUS5           0.93926          -0.25306
6                               BUS6           0.94402          -0.23939
7                              LOAD7            0.9325          -0.27675
8                              LOAD8           0.93185          -0.28358
9                               BUS9           0.98951          -0.22725
10                             BUS10           0.95602          -0.19828
11                             BUS11           0.95094          -0.21415
12                            LOAD12            0.9421          -0.24363
13                             BUS13           0.94994          -0.21533
14                             BUS14           0.93892          -0.24967
15                            LOAD15           0.94039          -0.26318
16                            LOAD16           0.95968          -0.23711
17                             BUS17           0.95018          -0.26586
18                            LOAD18            0.9419          -0.28642
19                             BUS19           0.98805          -0.14159
20                            LOAD20           0.98876          -0.16636
21                            LOAD21           0.97315          -0.18532
22                             BUS22            1.0111         -0.096182
23                            LOAD23            1.0063          -0.10025
24                            LOAD24           0.96887          -0.23347
25                            LOAD25           0.98575           -0.2192
26                            LOAD26           0.96641          -0.24648
27                            LOAD27            0.9502          -0.27917
28                            LOAD28           0.98595          -0.19359
29                            LOAD29            1.0009          -0.14619
30                             GEN30            1.0355          -0.14542
31                             GEN31            1.0132         -0.095454
32                             GEN32            1.0205         -0.055456
33                             GEN33            1.0134         -0.050248
34                             GEN34            1.0191         -0.076998
35                             GEN35              1.06        -0.0043945
36                             GEN36              1.06           0.04705
37                             GEN37             1.014          -0.14527
38                             GEN38            1.0528         -0.035423
39                             GEN39              1.03          -0.19129

LINE DATA:
                           Line Name     Fr. Bus (idx)      To Bus (idx)       P From (pu)       Q From (pu)         P To (pu)         Q To (pu)

Line_1                        Line_1                 1                 2           0.48787           0.66014          -0.48557          -0.63316
Line_2                        Line_2                 1                39          -0.48787          -0.66014           0.48853           0.67655
Line_3                        Line_3                 2                 3             4.934            3.0047           -4.8893           -2.4851
Line_4                        Line_4                 2                25          -0.11268         -0.010809           0.11278          0.010923
Line_5                        Line_5                 3                 4          -0.38469           0.40486           0.38515          -0.39726
Line_6                        Line_6                 3                18          -0.72605          -0.41972           0.72693           0.43042
Line_7                        Line_7                 4                 5           -2.3392          -0.74677            2.3448            0.8367
Line_8                        Line_8                 4                14            -2.546          -0.69597            2.5525           0.80068
Line_9                        Line_9                 5                 6           -4.7637           -1.3213            4.7693            1.3933
Line_10                      Line_10                 5                 8            2.4189           0.48462           -2.4134          -0.40735
Line_11                      Line_11                 6                 7            3.6396             1.011             -3.63          -0.86373
Line_12                      Line_12                 6                11           -2.8077          -0.52211            2.8141           0.59715
Line_13                      Line_13                 7                 8             1.292          0.023733           -1.2913         -0.014899
Line_14                      Line_14                 8                 9           -1.5154           -1.3437            1.5262            1.5152
Line_15                      Line_15                 9                39           -1.5262           -1.5152            1.5309            1.6333
Line_16                      Line_16                10                11            3.4331            0.8356           -3.4276          -0.77686
Line_17                      Line_17                10                13             3.698            1.0383           -3.6915          -0.96893
Line_18                      Line_18                13                14            3.1037           0.81113           -3.0934          -0.69595
Line_19                      Line_19                14                15           0.54094          -0.10474          -0.54032           0.11221
Line_20                      Line_20                15                16           -2.6597           -1.6422            2.6696            1.7461
Line_21                      Line_21                16                17            3.0102           0.83019           -3.0028          -0.73597
Line_22                      Line_22                16                19           -4.7023          -0.78862            4.7418              1.27
Line_23                      Line_23                16                21           -3.6194          -0.65009            3.6312           0.84831
Line_24                      Line_24                16                24          -0.64811           -1.4606           0.64894            1.4769
Line_25                      Line_25                17                18            2.3116           0.78454           -2.3069          -0.73042
Line_26                      Line_26                17                27           0.69128         -0.048572          -0.69058          0.057774
Line_27                      Line_27                21                22           -6.3712           -1.9983            6.4088            2.6574
Line_28                      Line_28                22                23           0.46117           0.48138          -0.46091          -0.47721
Line_29                      Line_29                23                24            3.7684            1.0865           -3.7349          -0.55491
Line_30                      Line_30                25                26           0.85546           0.51642          -0.85218          -0.48323
Line_31                      Line_31                26                27            2.1274           0.89666           -2.1194          -0.81277
Line_32                      Line_32                26                28           -1.0873           -0.2716            1.0931           0.33535
Line_33                      Line_33                26                29           -1.5779          -0.31183            1.5937           0.48495
Line_34                      Line_34                28                29           -3.1531          -0.61135            3.1679           0.77159
Line_35                      Line_35                 2                30           -4.3357           -2.3607            4.3609            2.8155
Line_36                      Line_36                31                 6              5.66            2.8618           -5.6012           -1.8823
Line_37                      Line_37                10                32            -7.131           -1.8739              7.25            3.0636
Line_38                      Line_38                12                11          -0.61284          -0.16005           0.61356           0.17971
Line_39                      Line_39                12                13          -0.58716          -0.13995           0.58782           0.15781
Line_40                      Line_40                19                20             1.747          -0.11774           -1.7448           0.16108
Line_41                      Line_41                19                33           -6.4889           -1.1522              6.52             1.784
Line_42                      Line_42                20                34           -5.0552           -1.1911              5.08            1.6877
Line_43                      Line_43                22                35             -6.87           -3.1388              6.87            3.9367
Line_44                      Line_44                23                36           -5.7824           -1.4553               5.8            2.4103
Line_45                      Line_45                25                37           -3.2082          -0.99934            3.2152            1.2689
Line_46                      Line_46                29                38           -7.5967           -2.5255            7.6478            3.5235

OTHER ALGEBRAIC VARIABLES:
                                    

q PV 1                        2.8155
q PV 2                        3.2618
q PV 3                        3.0636
q PV 4                         1.784
q PV 5                        1.6877
q PV 6                        3.9367
q PV 7                        2.4103
q PV 8                        1.2689
q PV 9                        3.5235
q Slack 10                    4.8099
p Slack 10                    6.0195

